data/ppower/bsp1.m
% This file was generated by sparlectra exportMatPower.jl
function mpc = bsp1
%% MATPOWER Case Format : Version 2
mpc.version = '2';
%%-----  Power Flow Data  -----%%
%% system MVA base
mpc.baseMVA = 100.0;
%% bus data
mpc.bus = [
%bus	type	Pd	Qd	Gs	Bs	area	Vm	Va	baseKV	zone	Vmax	Vmin
1	1	0.0	0.0	0.0	0.0	1	1.0	0.0	110.0	1	1.1	0.9; %Bus: Bus_1 (ID: 6fef648f-b3fd-4f69-ae75-a7b97f2a8aa4 kIdx: 1)
2	3	0.0	0.0	0.0	0.0	1	1.03	0.0	110.0	1	1.1	0.9; %Bus: Bus_2 (slack) (ID: 54e28bb4-5d46-4ab3-88df-a2ddbad3f5e2 kIdx: 2)
3	1	2.0	4.0	0.0	0.0	1	1.0	0.0	22.0	1	1.1	0.9; %Bus: Bus_3 (ID: 17d3fbb9-cfea-42d3-882d-cf70d581f9e7 kIdx: 3)
4	2	0.0	0.0	0.0	0.0	1	1.02	0.0	110.0	1	1.1	0.9; %Bus: Slack (ID: 94ea403f-682d-4887-adf5-7d95d85e67da kIdx: 4)
];
%% generator data
mpc.gen = [
%bus	Pg	Qg	Qmax	Qmin	Vg	mBase	status	Pmax	Pmin	Pc1	Pc2	Qc1min	Qc1max	Qc2min	Qc2max	ramp_agc	ramp_10	ramp_30	ramp_q	apf
1	2.0	-0.5	0	0	1.0	100.0	1	0	0	0.0	0.0	0.0	0.0	0.0	0.0	0.0	0.0	0.0	0.0	0.0; %Gen: Generator_SG1 (ID: 6fef648f-b3fd-4f69-ae75-a7b97f2a8aa4)
2	6.0	0	15.0	-15.0	1.03	100.0	1	0	0	0.0	0.0	0.0	0.0	0.0	0.0	0.0	0.0	0.0	0.0	0.0; %Gen: SynchronousMachine_VG1 (ID: 54e28bb4-5d46-4ab3-88df-a2ddbad3f5e2)
4	0	0	0	0	1.02	100.0	1	0	0	0.0	0.0	0.0	0.0	0.0	0.0	0.0	0.0	0.0	0.0	0.0; %Gen: ExternalNetworkInjection_ExG1 (ID: 94ea403f-682d-4887-adf5-7d95d85e67da)
];
%% branch data
mpc.branch = [
%fbus	tbus	r	x	b	rateA	rateB	rateC	ratio	angle	status	angmin	angmax
4	2	0.04132231	0.08057851	0.00907567	0	0	0	0.0	0.0	1	-360.0	360.0; %Branch: Name: L4_2, Typ: Line (ID: aa477960-fcd1-4708-9b0a-2b5ea3d4451d)
4	1	0.00413223	0.0322314	0.00363027	0	0	0	0.0	0.0	1	-360.0	360.0; %Branch: Name: L4_1, Typ: Line (ID: 23a0763f-2c80-4425-a824-d4d30c9d8eac)
2	3	0.0041	0.09991591	-0.00042	0	0	0	1.0	0.0	1	-360.0	360.0; %Branch: Name: T1, Typ: Trafo (ID: 44c53600-6b9f-44cd-b6a9-f90f5204614a)
];
